# Mol2 file generated by Materials Studio
@<TRIPOS>MOLECULE
"6806"
22 22 0 0 0 
SMALL
USER_CHARGES


@<TRIPOS>ATOM
1 I1 0.1116 2.7371 -0.5395 I 0 **** 0
2 I2 2.2131 -3.0096 -0.3102 I 0 **** 0
3 I3 -3.6136 -2.0293 0.422 I 0 **** 0
4 O4 -2.8605 1.5144 1.2656 O.co2 0 **** 0
5 O5 2.9931 0.636 1.5682 O.2 0 **** 0
6 O6 -3.3256 1.4331 -0.9578 O.co2 0 **** 0
7 N7 2.1619 0.243 -0.601 N.am 0 **** 0
8 C8 0.8642 -0.2366 -0.3739 C.2 0 **** 0
9 C9 -0.2123 0.6477 -0.3031 C.2 0 **** 0
10 C10 -1.5002 0.1618 -0.0769 C.2 0 **** 0
11 C11 0.6526 -1.6066 -0.2185 C.2 0 **** 0
12 C12 -1.7117 -1.2081 0.0785 C.2 0 **** 0
13 C13 -0.6353 -2.0923 0.0077 C.2 0 **** 0
14 C14 3.1097 0.6362 0.3469 C.2 0 **** 0
15 C15 -2.6368 1.0804 -0.0015 C.2 0 **** 0
16 C16 4.39 1.0928 -0.3064 C.3 0 **** 0
17 H17 -0.8 -3.161 0.1289 H 0 **** 0
18 H18 2.3779 0.424 -1.579 H 0 **** 0
19 H19 4.7503 0.3291 -1.0015 H 0 **** 0
20 H20 5.1547 1.2627 0.4567 H 0 **** 0
21 H21 4.212 2.0257 -0.8484 H 0 **** 0
22 H22 -3.6233 2.1295 1.3123 H 0 **** 0
@<TRIPOS>BOND
1 1 9 1
2 2 11 1
3 3 12 1
4 4 15 1
5 4 22 1
6 5 14 2
7 6 15 2
8 7 8 am
9 7 14 am
10 7 18 am
11 8 9 1
12 8 11 2
13 9 10 2
14 10 12 1
15 10 15 1
16 11 13 1
17 12 13 2
18 13 17 1
19 14 16 1
20 16 19 1
21 16 20 1
22 16 21 1
