# Mol2 file generated by Materials Studio
@<TRIPOS>MOLECULE
"2140"
29 29 0 0 0 
SMALL
USER_CHARGES


@<TRIPOS>ATOM
1 I1 0.0023 3.155 0.9583 I 0 **** 0
2 I2 3.0537 -2.0605 0.0814 I 0 **** 0
3 I3 -3.0553 -2.0567 0.0805 I 0 **** 0
4 O4 -0.0015 -3.4351 -1.4269 O.co2 0 **** 0
5 O5 -0.0031 -4.0056 0.7733 O.co2 0 **** 0
6 O6 -2.8996 1.7071 -1.6115 O.2 0 **** 0
7 O7 2.8978 1.7096 -1.6112 O.2 0 **** 0
8 N8 -2.4213 1.0595 0.6027 N.am 0 **** 0
9 N9 2.423 1.0568 0.6021 N.am 0 **** 0
10 C10 -1.2074 0.3667 0.4875 C.2 0 **** 0
11 C11 1.2085 0.3653 0.4876 C.2 0 **** 0
12 C12 0.001 1.0538 0.6025 C.2 0 **** 0
13 C13 -0.0008 -1.6977 0.1427 C.2 0 **** 0
14 C14 1.2077 -1.0105 0.2576 C.2 0 **** 0
15 C15 -1.2083 -1.0092 0.2577 C.2 0 **** 0
16 C16 -0.0015 -3.141 -0.1014 C.2 0 **** 0
17 C17 -3.1633 1.6651 -0.4141 C.2 0 **** 0
18 C18 3.1652 1.6618 -0.415 C.2 0 **** 0
19 C19 -4.416 2.3099 0.1237 C.3 0 **** 0
20 C20 4.4188 2.3054 0.1224 C.3 0 **** 0
21 H21 -2.7282 1.2139 1.5606 H 0 **** 0
22 H22 2.854 0.9993 1.5223 H 0 **** 0
23 H23 -4.9898 1.5856 0.7087 H 0 **** 0
24 H24 -5.0357 2.6627 -0.7052 H 0 **** 0
25 H25 -4.1476 3.1604 0.7565 H 0 **** 0
26 H26 4.1739 2.9674 0.9579 H 0 **** 0
27 H27 4.8981 2.8951 -0.664 H 0 **** 0
28 H28 5.1115 1.5302 0.4613 H 0 **** 0
29 H29 -0.0026 -4.4029 -1.5869 H 0 **** 0
@<TRIPOS>BOND
1 1 12 1
2 2 14 1
3 3 15 1
4 4 16 1
5 4 29 1
6 5 16 2
7 6 17 2
8 7 18 2
9 8 10 am
10 8 17 am
11 8 21 am
12 9 11 am
13 9 18 am
14 9 22 am
15 10 12 2
16 10 15 1
17 11 12 1
18 11 14 2
19 13 14 1
20 13 15 2
21 13 16 1
22 17 19 1
23 18 20 1
24 19 23 1
25 19 24 1
26 19 25 1
27 20 26 1
28 20 27 1
29 20 28 1
