# Mol2 file generated by Materials Studio
@<TRIPOS>MOLECULE
"ï»¿"
13 13 0 0 0 
SMALL
USER_CHARGES


@<TRIPOS>ATOM
1 O1 15.5818 -14.3711 0 O.co2 0 **** 0
2 C2 14.8327 -13.0753 0 C.2 0 **** 0
3 O3 15.5818 -11.7729 0 O.co2 0 **** 0
4 C4 13.3345 -13.0753 0 C.3 0 **** 0
5 N5 12.5854 -11.7729 0 N.2 0 **** 0
6 C6 13.3345 -10.4772 0 C.2 0 **** 0
7 C7 12.5854 -9.1747 0 C.2 0 **** 0
8 I8 13.3345 -7.8789 0 I 0 **** 0
9 C9 11.0804 -9.1747 0 C.2 0 **** 0
10 O10 10.3313 -7.8789 0 O.2 0 **** 0
11 C11 10.3313 -10.4772 0 C.2 0 **** 0
12 I12 8.8331 -10.4772 0 I 0 **** 0
13 C13 11.0804 -11.7729 0 C.2 0 **** 0
@<TRIPOS>BOND
1 1 2 1
2 2 3 2
3 2 4 1
4 4 5 1
5 5 6 1
6 5 13 1
7 6 7 2
8 7 8 1
9 7 9 1
10 9 10 2
11 9 11 1
12 11 12 1
13 11 13 2
