# Mol2 file generated by Materials Studio
@<TRIPOS>MOLECULE
"18377"
37 38 0 0 0 
SMALL
USER_CHARGES


@<TRIPOS>ATOM
1 I1 -1.2236 -2.1413 -2.4306 I 0 **** 0
2 I2 -0.807 0.2917 3.1751 I 0 **** 0
3 I3 -6.0254 0.4796 0.3148 I 0 **** 0
4 O4 0.3151 -2.3442 0.8677 O.2 0 **** 0
5 O5 1.3912 4.508 0.388 O.co2 0 **** 0
6 O6 0.1309 3.7112 -1.3242 O.co2 0 **** 0
7 N7 1.0381 -0.2833 -0.1 N.am 0 **** 0
8 N8 -4.2314 -1.0613 -1.9427 N.2 0 **** 0
9 C9 0.6453 0.9986 -0.6201 C.3 0 **** 0
10 C10 2.4621 -0.6341 -0.0854 C.2 0 **** 0
11 C11 0.0911 -1.2273 0.403 C.2 0 **** 0
12 C12 1.2732 2.1484 0.1568 C.3 0 **** 0
13 C13 -1.3326 -0.8427 0.3538 C.2 0 **** 0
14 C14 2.8909 -1.4702 0.8985 C.2 0 **** 0
15 C15 3.2486 -0.098 -1.0574 C.2 0 **** 0
16 C16 -2.094 -1.1374 -0.7695 C.2 0 **** 0
17 C17 -1.8923 -0.1863 1.4423 C.2 0 **** 0
18 C18 -3.4388 -0.7692 -0.8052 C.2 0 **** 0
19 C19 0.8574 3.5081 -0.3617 C.2 0 **** 0
20 C20 -3.2371 0.182 1.4065 C.2 0 **** 0
21 C21 4.2451 -1.8045 0.9117 C.2 0 **** 0
22 C22 4.6028 -0.4324 -1.0444 C.2 0 **** 0
23 C23 -4.0105 -0.1094 0.2828 C.2 0 **** 0
24 C24 5.1009 -1.2857 -0.0598 C.2 0 **** 0
25 H25 0.8899 1.0528 -1.6873 H 0 **** 0
26 H26 -0.437 1.1423 -0.5985 H 0 **** 0
27 H27 2.3661 2.1202 0.1137 H 0 **** 0
28 H28 0.9801 2.094 1.209 H 0 **** 0
29 H29 2.2911 -1.8307 1.7234 H 0 **** 0
30 H30 2.8986 0.5479 -1.8524 H 0 **** 0
31 H31 -3.6832 0.6965 2.2553 H 0 **** 0
32 H32 4.6377 -2.4532 1.6895 H 0 **** 0
33 H33 5.269 -0.0321 -1.8032 H 0 **** 0
34 H34 6.156 -1.5432 -0.0475 H 0 **** 0
35 H35 -3.8207 -1.54 -2.7332 H 0 **** 0
36 H36 -5.2059 -0.7917 -1.9608 H 0 **** 0
37 H37 1.1236 5.393 0.0602 H 0 **** 0
@<TRIPOS>BOND
1 1 16 1
2 2 17 1
3 3 23 1
4 4 11 2
5 5 19 1
6 5 37 1
7 6 19 2
8 7 9 am
9 7 10 am
10 7 11 am
11 8 18 1
12 8 35 1
13 8 36 1
14 9 12 1
15 9 25 1
16 9 26 1
17 10 14 2
18 10 15 1
19 11 13 1
20 12 19 1
21 12 27 1
22 12 28 1
23 13 16 2
24 13 17 1
25 14 21 1
26 14 29 1
27 15 22 2
28 15 30 1
29 16 18 1
30 17 20 2
31 18 23 2
32 20 23 1
33 20 31 1
34 21 24 2
35 21 32 1
36 22 24 1
37 22 33 1
38 24 34 1
