# Mol2 file generated by Materials Studio
@<TRIPOS>MOLECULE
"65985"
63 63 0 0 0 
SMALL
USER_CHARGES


@<TRIPOS>ATOM
1 I1 -1.8646 -2.8341 0.3924 I 0 **** 0
2 I2 -1.9935 2.9948 -1.4219 I 0 **** 0
3 I3 3.2674 0.4745 0.3746 I 0 **** 0
4 O4 4.6906 -2.9811 0.2316 O.3 0 **** 0
5 O5 -5.6387 -2.0896 -0.5387 O.3 0 **** 0
6 O6 1.3401 -2.1648 1.9834 O.2 0 **** 0
7 O7 -3.3487 -0.362 -1.8304 O.2 0 **** 0
8 O8 6.0954 -5.2971 -0.403 O.3 0 **** 0
9 O9 -8.0747 -0.7014 -0.3089 O.3 0 **** 0
10 O10 1.1704 6.1728 0.9634 O.3 0 **** 0
11 O11 4.6897 3.944 -0.0255 O.3 0 **** 0
12 O12 2.0088 3.1837 1.4006 O.2 0 **** 0
13 N13 1.8173 -2.9388 -0.1699 N.am 0 **** 0
14 N14 -3.892 0.2907 0.3474 N.am 0 **** 0
15 N15 1.1317 2.6381 -0.7049 N.am 0 **** 0
16 C16 2.5641 -4.1251 0.243 C.3 0 **** 0
17 C17 -5.3418 0.1932 0.1918 C.3 0 **** 0
18 C18 0.5139 -0.8908 0.2581 C.2 0 **** 0
19 C19 -1.5682 0.1063 -0.4545 C.2 0 **** 0
20 C20 0.4624 1.4152 -0.4604 C.2 0 **** 0
21 C21 4.0036 -4.129 -0.2682 C.3 0 **** 0
22 C22 -5.8853 -1.1905 0.543 C.3 0 **** 0
23 C23 -0.8571 -0.9947 0.0224 C.2 0 **** 0
24 C24 1.2606 -2.0464 0.7576 C.2 0 **** 0
25 C25 -3.0071 -0.002 -0.7006 C.2 0 **** 0
26 C26 2.4152 4.6771 -0.4586 C.3 0 **** 0
27 C27 -0.9085 1.3113 -0.696 C.2 0 **** 0
28 C28 1.1735 0.3142 0.0167 C.2 0 **** 0
29 C29 1.8337 3.42 0.2086 C.2 0 **** 0
30 C30 4.7816 -5.3752 0.1415 C.3 0 **** 0
31 C31 -7.3823 -1.191 0.8353 C.3 0 **** 0
32 C32 1.6887 -2.7436 -1.6073 C.3 0 **** 0
33 C33 -3.4258 0.7118 1.6612 C.3 0 **** 0
34 C34 2.4855 5.8496 0.5255 C.3 0 **** 0
35 C35 3.794 4.36 -1.0493 C.3 0 **** 0
36 H36 2.0211 -5.0032 -0.1251 H 0 **** 0
37 H37 2.5649 -4.1745 1.3376 H 0 **** 0
38 H38 -5.5784 0.4271 -0.8531 H 0 **** 0
39 H39 -5.7992 0.9675 0.8185 H 0 **** 0
40 H40 4.0343 -4.0548 -1.3611 H 0 **** 0
41 H41 -5.3709 -1.5929 1.4233 H 0 **** 0
42 H42 1.7435 4.9731 -1.275 H 0 **** 0
43 H43 0.7653 3.1452 -1.5082 H 0 **** 0
44 H44 4.8768 -5.4346 1.2307 H 0 **** 0
45 H45 4.2986 -6.2828 -0.233 H 0 **** 0
46 H46 -7.7365 -2.2085 1.0289 H 0 **** 0
47 H47 -7.6189 -0.5529 1.6922 H 0 **** 0
48 H48 2.6273 -2.3378 -1.9954 H 0 **** 0
49 H49 0.8864 -2.059 -1.8837 H 0 **** 0
50 H50 1.4837 -3.7068 -2.085 H 0 **** 0
51 H51 -3.8015 1.7217 1.8533 H 0 **** 0
52 H52 -2.3418 0.727 1.771 H 0 **** 0
53 H53 -3.8346 0.0317 2.4145 H 0 **** 0
54 H54 2.9028 6.7371 0.0394 H 0 **** 0
55 H55 3.0957 5.6232 1.4062 H 0 **** 0
56 H56 4.2147 5.2426 -1.5421 H 0 **** 0
57 H57 3.7221 3.5526 -1.7857 H 0 **** 0
58 H58 4.1864 -2.196 -0.042 H 0 **** 0
59 H59 -4.6758 -2.1399 -0.6631 H 0 **** 0
60 H60 6.5663 -6.1015 -0.1256 H 0 **** 0
61 H61 -9.023 -0.7143 -0.0943 H 0 **** 0
62 H62 0.8474 5.4334 1.5056 H 0 **** 0
63 H63 5.5427 3.7556 -0.4525 H 0 **** 0
@<TRIPOS>BOND
1 1 23 1
2 2 27 1
3 3 28 1
4 4 21 1
5 4 58 1
6 5 22 1
7 5 59 1
8 6 24 2
9 7 25 2
10 8 30 1
11 8 60 1
12 9 31 1
13 9 61 1
14 10 34 1
15 10 62 1
16 11 35 1
17 11 63 1
18 12 29 2
19 13 16 am
20 13 24 am
21 13 32 am
22 14 17 am
23 14 25 am
24 14 33 am
25 15 20 am
26 15 29 am
27 15 43 am
28 16 21 1
29 16 36 1
30 16 37 1
31 17 22 1
32 17 38 1
33 17 39 1
34 18 23 2
35 18 24 1
36 18 28 1
37 19 23 1
38 19 25 1
39 19 27 2
40 20 27 1
41 20 28 2
42 21 30 1
43 21 40 1
44 22 31 1
45 22 41 1
46 26 29 1
47 26 34 1
48 26 35 1
49 26 42 1
50 30 44 1
51 30 45 1
52 31 46 1
53 31 47 1
54 32 48 1
55 32 49 1
56 32 50 1
57 33 51 1
58 33 52 1
59 33 53 1
60 34 54 1
61 34 55 1
62 35 56 1
63 35 57 1
