# Mol2 file generated by Materials Studio
@<TRIPOS>MOLECULE
"27648"
33 33 0 0 0 
SMALL
USER_CHARGES


@<TRIPOS>ATOM
1 I1 1.2188 -1.9928 2.3561 I 0 **** 0
2 I2 -0.4161 1.2572 -2.5702 I 0 **** 0
3 I3 5.0332 2.0006 -0.2856 I 0 **** 0
4 O4 -3.9494 2.4844 0.5789 O.co2 0 **** 0
5 O5 -1.7642 -2.7726 -0.8337 O.2 0 **** 0
6 O6 -4.0073 0.6361 1.8938 O.co2 0 **** 0
7 N7 -0.5672 -0.855 -0.0836 N.am 0 **** 0
8 N8 3.8825 -0.249 1.7901 N.2 0 **** 0
9 C9 -1.5845 -0.2811 0.7539 C.3 0 **** 0
10 C10 -2.4867 0.6887 -0.0104 C.3 0 **** 0
11 C11 0.7446 -0.2042 -0.1068 C.2 0 **** 0
12 C12 -3.1492 0.0218 -1.2175 C.3 0 **** 0
13 C13 -0.752 -2.0677 -0.813 C.2 0 **** 0
14 C14 -3.5461 1.2359 0.9315 C.2 0 **** 0
15 C15 1.6515 -0.5526 0.8511 C.2 0 **** 0
16 C16 0.9731 0.7123 -1.0922 C.2 0 **** 0
17 C17 2.8988 0.071 0.8214 C.2 0 **** 0
18 C18 2.2204 1.3358 -1.1219 C.2 0 **** 0
19 C19 0.4165 -2.4841 -1.6767 C.3 0 **** 0
20 C20 3.1833 1.0153 -0.1651 C.2 0 **** 0
21 H21 -1.1293 0.2302 1.6113 H 0 **** 0
22 H22 -2.1868 -1.1029 1.1623 H 0 **** 0
23 H23 -1.9007 1.5659 -0.2856 H 0 **** 0
24 H24 -3.6936 0.7703 -1.806 H 0 **** 0
25 H25 -2.5012 -0.5285 -1.8942 H 0 **** 0
26 H26 -3.9074 -0.6937 -0.8733 H 0 **** 0
27 H27 2.4422 2.0724 -1.8916 H 0 **** 0
28 H28 1.3247 -2.6258 -1.0879 H 0 **** 0
29 H29 0.5904 -1.7752 -2.4865 H 0 **** 0
30 H30 0.1842 -3.4506 -2.1377 H 0 **** 0
31 H31 3.6799 -0.9336 2.5063 H 0 **** 0
32 H32 4.7847 0.2068 1.7618 H 0 **** 0
33 H33 -4.6381 2.8308 1.1856 H 0 **** 0
@<TRIPOS>BOND
1 1 15 1
2 2 16 1
3 3 20 1
4 4 14 1
5 4 33 1
6 5 13 2
7 6 14 2
8 7 9 am
9 7 11 am
10 7 13 am
11 8 17 1
12 8 31 1
13 8 32 1
14 9 10 1
15 9 21 1
16 9 22 1
17 10 12 1
18 10 14 1
19 10 23 1
20 11 15 1
21 11 16 2
22 12 24 1
23 12 25 1
24 12 26 1
25 13 19 1
26 15 17 2
27 16 18 1
28 17 20 1
29 18 20 2
30 18 27 1
31 19 28 1
32 19 29 1
33 19 30 1
