# Mol2 file generated by Materials Studio
@<TRIPOS>MOLECULE
"3723"
32 32 0 0 0 
SMALL
USER_CHARGES


@<TRIPOS>ATOM
1 I1 -0.591 2.8953 -1.166 I 0 **** 0
2 I2 -1.9007 -2.9809 -0.2254 I 0 **** 0
3 I3 3.8782 -1.0469 0.1541 I 0 **** 0
4 O4 1.3107 -3.2825 1.5354 O.co2 0 **** 0
5 O5 1.6541 -3.8805 -0.6304 O.co2 0 **** 0
6 O6 -5.1641 0.7648 -0.5647 O.2 0 **** 0
7 O7 2.4216 2.5203 1.6453 O.2 0 **** 0
8 N8 -3.0296 0.5183 0.3338 N.am 0 **** 0
9 N9 2.3386 1.6926 -0.559 N.am 0 **** 0
10 C10 -0.8865 -0.1141 -0.6365 C.2 0 **** 0
11 C11 -2.3398 0.171 -0.8785 C.3 0 **** 0
12 C12 0.0484 0.9186 -0.7098 C.2 0 **** 0
13 C13 1.3993 0.6537 -0.4847 C.2 0 **** 0
14 C14 -0.4706 -1.4116 -0.3381 C.2 0 **** 0
15 C15 0.8802 -1.6765 -0.113 C.2 0 **** 0
16 C16 1.8152 -0.6439 -0.1863 C.2 0 **** 0
17 C17 1.3163 -3.0384 0.2 C.2 0 **** 0
18 C18 -4.3907 0.7873 0.3892 C.2 0 **** 0
19 C19 2.774 2.5305 0.4702 C.2 0 **** 0
20 C20 -4.8602 1.0986 1.785 C.3 0 **** 0
21 C21 3.7967 3.5244 -0.0206 C.3 0 **** 0
22 H22 -2.5126 0.9626 -1.6127 H 0 **** 0
23 H23 -2.8719 -0.6554 -1.3578 H 0 **** 0
24 H24 -2.4934 0.5682 1.1961 H 0 **** 0
25 H25 2.6448 1.9157 -1.5036 H 0 **** 0
26 H26 -5.879 1.4942 1.7517 H 0 **** 0
27 H27 -4.8477 0.1852 2.3859 H 0 **** 0
28 H28 -4.2089 1.847 2.2454 H 0 **** 0
29 H29 4.6057 3.005 -0.5422 H 0 **** 0
30 H30 4.2188 4.0702 0.8277 H 0 **** 0
31 H31 3.3196 4.2347 -0.7014 H 0 **** 0
32 H32 1.604 -4.1956 1.7417 H 0 **** 0
@<TRIPOS>BOND
1 1 12 1
2 2 14 1
3 3 16 1
4 4 17 1
5 4 32 1
6 5 17 2
7 6 18 2
8 7 19 2
9 8 11 am
10 8 18 am
11 8 24 am
12 9 13 am
13 9 19 am
14 9 25 am
15 10 11 1
16 10 12 1
17 10 14 2
18 11 22 1
19 11 23 1
20 12 13 2
21 13 16 1
22 14 15 1
23 15 16 2
24 15 17 1
25 18 20 1
26 19 21 1
27 20 26 1
28 20 27 1
29 20 28 1
30 21 29 1
31 21 30 1
32 21 31 1
