# Mol2 file generated by Materials Studio
@<TRIPOS>MOLECULE
"3730"
60 60 0 0 0 
SMALL
USER_CHARGES


@<TRIPOS>ATOM
1 I1 -2.9545 -1.9438 -0.5144 I 0 **** 0
2 I2 2.8488 -0.9844 1.1155 I 0 **** 0
3 I3 -0.7347 3.7416 -0.3363 I 0 **** 0
4 O4 2.4637 -4.1565 0.2374 O.3 0 **** 0
5 O5 3.7544 -4.4094 -2.2143 O.3 0 **** 0
6 O6 -0.0795 -4.3738 1.8223 O.2 0 **** 0
7 O7 5.4398 1.4649 -1.0123 O.3 0 **** 0
8 O8 -6.1465 0.2013 1.043 O.3 0 **** 0
9 O9 2.0614 2.5447 1.7042 O.2 0 **** 0
10 O10 -3.0673 1.4236 -1.9542 O.2 0 **** 0
11 O11 7.5013 2.5964 0.4744 O.3 0 **** 0
12 O12 -8.3786 0.3833 -0.6074 O.3 0 **** 0
13 N13 0.0808 -2.4811 0.4233 N.am 0 **** 0
14 N14 2.7303 2.3426 -0.5068 N.am 0 **** 0
15 N15 -3.74 1.5941 0.2592 N.am 0 **** 0
16 C16 0.4464 -3.2958 -0.7726 C.3 0 **** 0
17 C17 -0.0999 -1.1006 0.2541 C.2 0 **** 0
18 C18 1.9542 -3.4921 -0.9194 C.3 0 **** 0
19 C19 -1.3385 -0.6039 -0.1519 C.2 0 **** 0
20 C20 0.959 -0.2244 0.492 C.2 0 **** 0
21 C21 -1.5182 0.7691 -0.32 C.2 0 **** 0
22 C22 0.7792 1.1486 0.3239 C.2 0 **** 0
23 C23 -0.4593 1.6453 -0.082 C.2 0 **** 0
24 C24 2.3353 -4.3058 -2.152 C.3 0 **** 0
25 C25 -0.157 -3.1524 1.6678 C.2 0 **** 0
26 C26 1.8907 2.068 0.5734 C.2 0 **** 0
27 C27 -2.837 1.2974 -0.7544 C.2 0 **** 0
28 C28 3.8824 3.2103 -0.4133 C.3 0 **** 0
29 C29 -5.0647 2.09 -0.0025 C.3 0 **** 0
30 C30 5.1591 2.4637 -0.0311 C.3 0 **** 0
31 C31 -6.0971 0.9747 -0.1565 C.3 0 **** 0
32 C32 -0.4884 -2.3071 2.8763 C.3 0 **** 0
33 C33 6.3741 3.3778 0.0903 C.3 0 **** 0
34 C34 -7.4998 1.4937 -0.4555 C.3 0 **** 0
35 H35 0.042 -2.8168 -1.6717 H 0 **** 0
36 H36 -0.0404 -4.2727 -0.6669 H 0 **** 0
37 H37 2.4669 -2.5426 -1.0536 H 0 **** 0
38 H38 1.9311 -5.3214 -2.0876 H 0 **** 0
39 H39 1.9756 -3.8286 -3.0689 H 0 **** 0
40 H40 3.6727 4.0033 0.3126 H 0 **** 0
41 H41 3.9959 3.6692 -1.4018 H 0 **** 0
42 H42 -5.3243 2.7267 0.8506 H 0 **** 0
43 H43 -5.0428 2.7146 -0.9022 H 0 **** 0
44 H44 5.0186 1.933 0.918 H 0 **** 0
45 H45 -5.7965 0.2863 -0.9552 H 0 **** 0
46 H46 2.5357 1.9063 -1.4036 H 0 **** 0
47 H47 -3.4651 1.4467 1.2263 H 0 **** 0
48 H48 -0.7664 -2.9591 3.7103 H 0 **** 0
49 H49 0.3778 -1.7158 3.1778 H 0 **** 0
50 H50 -1.3352 -1.6483 2.6717 H 0 **** 0
51 H51 2.3553 -3.5524 0.9909 H 0 **** 0
52 H52 6.2103 4.1538 0.8442 H 0 **** 0
53 H53 6.607 3.8462 -0.8715 H 0 **** 0
54 H54 -7.8747 2.1031 0.3733 H 0 **** 0
55 H55 -7.5143 2.0827 -1.3776 H 0 **** 0
56 H56 3.9667 -4.9326 -3.006 H 0 **** 0
57 H57 4.6618 0.8838 -1.0663 H 0 **** 0
58 H58 -5.2486 -0.1326 1.2107 H 0 **** 0
59 H59 8.258 3.2033 0.5428 H 0 **** 0
60 H60 -9.262 0.7436 -0.7958 H 0 **** 0
@<TRIPOS>BOND
1 1 19 1
2 2 20 1
3 3 23 1
4 4 18 1
5 4 51 1
6 5 24 1
7 5 56 1
8 6 25 2
9 7 30 1
10 7 57 1
11 8 31 1
12 8 58 1
13 9 26 2
14 10 27 2
15 11 33 1
16 11 59 1
17 12 34 1
18 12 60 1
19 13 16 am
20 13 17 am
21 13 25 am
22 14 26 am
23 14 28 am
24 14 46 am
25 15 27 am
26 15 29 am
27 15 47 am
28 16 18 1
29 16 35 1
30 16 36 1
31 17 19 2
32 17 20 1
33 18 24 1
34 18 37 1
35 19 21 1
36 20 22 2
37 21 23 2
38 21 27 1
39 22 23 1
40 22 26 1
41 24 38 1
42 24 39 1
43 25 32 1
44 28 30 1
45 28 40 1
46 28 41 1
47 29 31 1
48 29 42 1
49 29 43 1
50 30 33 1
51 30 44 1
52 31 34 1
53 31 45 1
54 32 48 1
55 32 49 1
56 32 50 1
57 33 52 1
58 33 53 1
59 34 54 1
60 34 55 1
