# Mol2 file generated by Materials Studio
@<TRIPOS>MOLECULE
"3731"
53 53 0 0 0 
SMALL
USER_CHARGES


@<TRIPOS>ATOM
1 I1 3.4229 -1.3112 0.76 I 0 **** 0
2 I2 -2.3 -3.4188 0.5138 I 0 **** 0
3 I3 -1.2758 2.5806 1.0056 I 0 **** 0
4 O4 -4.4833 2.4468 -1.6273 O.3 0 **** 0
5 O5 4.7856 1.8617 -1.5455 O.3 0 **** 0
6 O6 -3.4976 -0.2128 1.8244 O.2 0 **** 0
7 O7 2.1567 1.8685 2.0666 O.2 0 **** 0
8 O8 -6.8739 3.4764 -0.6449 O.3 0 **** 0
9 O9 6.9173 3.2887 -0.4684 O.3 0 **** 0
10 O10 1.6178 -5.0593 -0.8777 O.2 0 **** 0
11 O11 1.3583 -3.8002 -3.1062 O.3 0 **** 0
12 N12 0.9203 -3.331 0.5631 N.am 0 **** 0
13 N13 -3.471 -0.0064 -0.4858 N.am 0 **** 0
14 N14 2.2079 2.0395 -0.2452 N.am 0 **** 0
15 C15 0.4331 -2.0195 0.6606 C.2 0 **** 0
16 C16 -1.4263 -0.48 0.7581 C.2 0 **** 0
17 C17 0.8391 0.3543 0.8544 C.2 0 **** 0
18 C18 1.3235 -0.9501 0.7571 C.2 0 **** 0
19 C19 -0.9418 -1.7843 0.6612 C.2 0 **** 0
20 C20 -0.5359 0.5894 0.8548 C.2 0 **** 0
21 C21 -4.8726 0.274 -0.6486 C.3 0 **** 0
22 C22 3.1473 3.1359 -0.3114 C.3 0 **** 0
23 C23 -5.1907 1.7669 -0.5897 C.3 0 **** 0
24 C24 4.6002 2.6699 -0.3827 C.3 0 **** 0
25 C25 -2.8907 -0.2299 0.7567 C.2 0 **** 0
26 C26 1.7737 1.4764 0.9554 C.2 0 **** 0
27 C27 -6.6782 2.0688 -0.74 C.3 0 **** 0
28 C28 5.5975 3.823 -0.431 C.3 0 **** 0
29 C29 1.166 -4.1395 1.7924 C.3 0 **** 0
30 C30 1.1889 -3.9126 -0.7188 C.2 0 **** 0
31 C31 0.9819 -3.0652 -1.9611 C.3 0 **** 0
32 H32 -5.438 -0.2658 0.1189 H 0 **** 0
33 H33 -5.1511 -0.1309 -1.6279 H 0 **** 0
34 H34 2.8883 3.7016 -1.2133 H 0 **** 0
35 H35 2.9976 3.7857 0.5576 H 0 **** 0
36 H36 -4.8365 2.1939 0.3561 H 0 **** 0
37 H37 4.837 2.0321 0.4771 H 0 **** 0
38 H38 -2.8866 -0.029 -1.3168 H 0 **** 0
39 H39 1.8599 1.6584 -1.1206 H 0 **** 0
40 H40 -7.2616 1.5784 0.0452 H 0 **** 0
41 H41 -7.0437 1.7482 -1.7211 H 0 **** 0
42 H42 5.5022 4.4641 0.4507 H 0 **** 0
43 H43 5.4562 4.4227 -1.336 H 0 **** 0
44 H44 2.2192 -4.4341 1.8085 H 0 **** 0
45 H45 0.9174 -3.5629 2.6874 H 0 **** 0
46 H46 0.5548 -5.0448 1.7394 H 0 **** 0
47 H47 -0.0724 -2.7948 -2.0557 H 0 **** 0
48 H48 1.5968 -2.1644 -1.9166 H 0 **** 0
49 H49 -3.5373 2.2549 -1.5082 H 0 **** 0
50 H50 4.1525 1.1255 -1.4917 H 0 **** 0
51 H51 -7.8276 3.6381 -0.7448 H 0 **** 0
52 H52 7.5289 4.0439 -0.4994 H 0 **** 0
53 H53 1.1952 -3.2332 -3.8791 H 0 **** 0
@<TRIPOS>BOND
1 1 18 1
2 2 19 1
3 3 20 1
4 4 23 1
5 4 49 1
6 5 24 1
7 5 50 1
8 6 25 2
9 7 26 2
10 8 27 1
11 8 51 1
12 9 28 1
13 9 52 1
14 10 30 2
15 11 31 1
16 11 53 1
17 12 15 am
18 12 29 am
19 12 30 am
20 13 21 am
21 13 25 am
22 13 38 am
23 14 22 am
24 14 26 am
25 14 39 am
26 15 18 2
27 15 19 1
28 16 19 2
29 16 20 1
30 16 25 1
31 17 18 1
32 17 20 2
33 17 26 1
34 21 23 1
35 21 32 1
36 21 33 1
37 22 24 1
38 22 34 1
39 22 35 1
40 23 27 1
41 23 36 1
42 24 28 1
43 24 37 1
44 27 40 1
45 27 41 1
46 28 42 1
47 28 43 1
48 29 44 1
49 29 45 1
50 29 46 1
51 30 31 1
52 31 47 1
53 31 48 1
