# Mol2 file generated by Materials Studio
@<TRIPOS>MOLECULE
"65492"
53 53 0 0 0 
SMALL
USER_CHARGES


@<TRIPOS>ATOM
1 I1 -0.4398 -3.2598 0.3259 I 0 **** 0
2 I2 -2.698 2.1566 -1.3615 I 0 **** 0
3 I3 3.0758 1.7267 0.5708 I 0 **** 0
4 O4 3.1602 -4.6192 -1.0321 O.3 0 **** 0
5 O5 5.6869 -1.2634 -0.7925 O.3 0 **** 0
6 O6 -5.624 -0.4773 -1.6947 O.3 0 **** 0
7 O7 -5.25 -1.3275 2.4986 O.3 0 **** 0
8 O8 2.2985 -1.5373 2.0467 O.2 0 **** 0
9 O9 -2.7572 -1.4717 -1.8743 O.2 0 **** 0
10 O10 1.0364 6.2595 0.8264 O.3 0 **** 0
11 O11 0.887 3.7357 1.6078 O.2 0 **** 0
12 N12 2.9891 -1.946 -0.1287 N.am 0 **** 0
13 N13 -3.448 -1.1036 0.308 N.am 0 **** 0
14 N14 0.3111 2.958 -0.5345 N.am 0 **** 0
15 C15 4.114 -2.7885 0.208 C.3 0 **** 0
16 C16 -4.7522 -1.7197 0.1754 C.3 0 **** 0
17 C17 1.0382 -0.564 0.3256 C.2 0 **** 0
18 C18 -1.2469 -0.3942 -0.4404 C.2 0 **** 0
19 C19 -0.1872 -1.165 0.0377 C.2 0 **** 0
20 C20 0.1444 1.5786 -0.3431 C.2 0 **** 0
21 C21 -1.081 0.9776 -0.6308 C.2 0 **** 0
22 C22 1.2039 0.8079 0.1352 C.2 0 **** 0
23 C23 2.1502 -1.3728 0.8277 C.2 0 **** 0
24 C24 -2.5528 -1.0335 -0.7453 C.2 0 **** 0
25 C25 4.3344 -3.8278 -0.8888 C.3 0 **** 0
26 C26 5.366 -1.9391 0.4182 C.3 0 **** 0
27 C27 -5.7773 -0.6901 -0.2959 C.3 0 **** 0
28 C28 -5.1724 -2.343 1.5046 C.3 0 **** 0
29 C29 0.6535 3.9243 0.4172 C.2 0 **** 0
30 C30 0.7357 5.3208 -0.1941 C.3 0 **** 0
31 C31 1.8017 5.398 -1.2769 C.3 0 **** 0
32 H32 3.8721 -3.3062 1.1442 H 0 **** 0
33 H33 -4.6729 -2.518 -0.5731 H 0 **** 0
34 H34 2.8272 -1.7312 -1.1089 H 0 **** 0
35 H35 -3.203 -0.6764 1.197 H 0 **** 0
36 H36 4.5398 -3.3592 -1.8573 H 0 **** 0
37 H37 5.1679 -4.4904 -0.6338 H 0 **** 0
38 H38 5.2082 -1.1897 1.2005 H 0 **** 0
39 H39 6.2172 -2.5665 0.702 H 0 **** 0
40 H40 -5.6629 0.2695 0.2198 H 0 **** 0
41 H41 -6.797 -1.0563 -0.1369 H 0 **** 0
42 H42 -6.1497 -2.8291 1.421 H 0 **** 0
43 H43 -4.4371 -3.0855 1.8329 H 0 **** 0
44 H44 -0.2067 3.3264 -1.3306 H 0 **** 0
45 H45 -0.2482 5.5726 -0.6059 H 0 **** 0
46 H46 3.3394 -5.2709 -1.7312 H 0 **** 0
47 H47 6.4865 -0.7373 -0.6215 H 0 **** 0
48 H48 -6.2923 0.178 -1.9584 H 0 **** 0
49 H49 -5.5167 -1.7604 3.3275 H 0 **** 0
50 H50 2.7866 5.1398 -0.8721 H 0 **** 0
51 H51 1.8788 6.4189 -1.6662 H 0 **** 0
52 H52 1.59 4.7259 -2.1139 H 0 **** 0
53 H53 0.9694 7.148 0.4367 H 0 **** 0
@<TRIPOS>BOND
1 1 19 1
2 2 21 1
3 3 22 1
4 4 25 1
5 4 46 1
6 5 26 1
7 5 47 1
8 6 27 1
9 6 48 1
10 7 28 1
11 7 49 1
12 8 23 2
13 9 24 2
14 10 30 1
15 10 53 1
16 11 29 2
17 12 15 am
18 12 23 am
19 12 34 am
20 13 16 am
21 13 24 am
22 13 35 am
23 14 20 am
24 14 29 am
25 14 44 am
26 15 25 1
27 15 26 1
28 15 32 1
29 16 27 1
30 16 28 1
31 16 33 1
32 17 19 2
33 17 22 1
34 17 23 1
35 18 19 1
36 18 21 2
37 18 24 1
38 20 21 1
39 20 22 2
40 25 36 1
41 25 37 1
42 26 38 1
43 26 39 1
44 27 40 1
45 27 41 1
46 28 42 1
47 28 43 1
48 29 30 1
49 30 31 1
50 30 45 1
51 31 50 1
52 31 51 1
53 31 52 1
