# Mol2 file generated by Materials Studio
@<TRIPOS>MOLECULE
"3735"
29 29 0 0 0 
SMALL
USER_CHARGES


@<TRIPOS>ATOM
1 I1 0.6282 3.1703 0.3943 I 0 **** 0
2 I2 -0.5293 -2.7957 1.0462 I 0 **** 0
3 I3 4.871 -1.0803 -0.789 I 0 **** 0
4 O4 -1.7041 -1.4188 -1.4641 O.co2 0 **** 0
5 O5 -3.4337 -1.4722 0.0027 O.co2 0 **** 0
6 N6 3.4542 1.8487 -0.4637 N.2 0 **** 0
7 C7 -2.0478 0.5273 -0.1035 C.3 0 **** 0
8 C8 -1.0457 0.4556 1.0636 C.3 0 **** 0
9 C9 -3.2753 1.3654 0.2992 C.3 0 **** 0
10 C10 0.3596 0.1225 0.6221 C.2 0 **** 0
11 C11 -2.4801 -0.8813 -0.4886 C.2 0 **** 0
12 C12 -4.3212 1.4435 -0.806 C.3 0 **** 0
13 C13 1.2441 1.1408 0.2876 C.2 0 **** 0
14 C14 0.7514 -1.2093 0.5564 C.2 0 **** 0
15 C15 2.54 0.8225 -0.119 C.2 0 **** 0
16 C16 2.0472 -1.5274 0.1498 C.2 0 **** 0
17 C17 2.9415 -0.5116 -0.188 C.2 0 **** 0
18 H18 -1.599 0.9972 -0.9879 H 0 **** 0
19 H19 -1.4012 -0.2449 1.8276 H 0 **** 0
20 H20 -1.0608 1.3851 1.6405 H 0 **** 0
21 H21 -2.9547 2.384 0.5482 H 0 **** 0
22 H22 -3.7436 0.9499 1.2002 H 0 **** 0
23 H23 -3.8817 1.8236 -1.7339 H 0 **** 0
24 H24 -5.1228 2.1283 -0.51 H 0 **** 0
25 H25 -4.7816 0.474 -1.014 H 0 **** 0
26 H26 2.3602 -2.5681 0.0959 H 0 **** 0
27 H27 -1.9969 -2.3227 -1.7077 H 0 **** 0
28 H28 4.3919 1.6104 -0.7582 H 0 **** 0
29 H29 3.1662 2.8169 -0.4155 H 0 **** 0
@<TRIPOS>BOND
1 1 13 1
2 2 14 1
3 3 17 1
4 4 11 1
5 4 27 1
6 5 11 2
7 6 15 1
8 6 28 1
9 6 29 1
10 7 8 1
11 7 9 1
12 7 11 1
13 7 18 1
14 8 10 1
15 8 19 1
16 8 20 1
17 9 12 1
18 9 21 1
19 9 22 1
20 10 13 2
21 10 14 1
22 12 23 1
23 12 24 1
24 12 25 1
25 13 15 1
26 14 16 2
27 15 17 2
28 16 17 1
29 16 26 1
