# Mol2 file generated by Materials Studio
@<TRIPOS>MOLECULE
"7458"
51 51 0 0 0 
SMALL
USER_CHARGES


@<TRIPOS>ATOM
1 I1 -6.5006 4.1202 -0.1759 I 0 **** 0
2 O2 7.6536 0.864 0.3979 O.co2 0 **** 0
3 O3 6.9517 -0.7271 -1.1162 O.co2 0 **** 0
4 C4 -2.1118 -1.337 0.201 C.3 0 **** 0
5 C5 -3.1964 -2.1735 -0.4901 C.3 0 **** 0
6 C6 -0.7513 -1.5428 -0.4714 C.3 0 **** 0
7 C7 -4.6257 -1.9832 0.066 C.3 0 **** 0
8 C8 0.3765 -0.7147 0.1533 C.3 0 **** 0
9 C9 1.7683 -0.9053 -0.4585 C.3 0 **** 0
10 C10 2.8628 -0.0956 0.2398 C.3 0 **** 0
11 C11 -5.0718 -0.529 0.0084 C.2 0 **** 0
12 C12 4.24 -0.3881 -0.3656 C.3 0 **** 0
13 C13 -4.7763 -2.6601 1.4338 C.3 0 **** 0
14 C14 5.3474 0.435 0.293 C.3 0 **** 0
15 C15 -5.5762 -0.001 -1.1801 C.2 0 **** 0
16 C16 -4.9768 0.2755 1.144 C.2 0 **** 0
17 C17 -5.9854 1.3313 -1.2331 C.2 0 **** 0
18 C18 -5.3859 1.6078 1.091 C.2 0 **** 0
19 C19 6.7208 0.106 -0.2504 C.2 0 **** 0
20 C20 -5.8901 2.1359 -0.0975 C.2 0 **** 0
21 C21 9.0107 0.6365 0.0037 C.3 0 **** 0
22 C22 9.9164 1.5453 0.807 C.3 0 **** 0
23 H23 -2.0393 -1.6108 1.2591 H 0 **** 0
24 H24 -2.3575 -0.2711 0.1528 H 0 **** 0
25 H25 -2.9258 -3.2359 -0.4371 H 0 **** 0
26 H26 -3.203 -1.9143 -1.5576 H 0 **** 0
27 H27 -0.8277 -1.2865 -1.5354 H 0 **** 0
28 H28 -0.4812 -2.6049 -0.421 H 0 **** 0
29 H29 -5.3004 -2.5406 -0.6005 H 0 **** 0
30 H30 0.109 0.3478 0.09 H 0 **** 0
31 H31 0.4307 -0.955 1.2229 H 0 **** 0
32 H32 1.7324 -0.6306 -1.5198 H 0 **** 0
33 H33 2.0262 -1.9709 -0.4171 H 0 **** 0
34 H34 2.875 -0.3382 1.3091 H 0 **** 0
35 H35 2.6386 0.9741 0.1521 H 0 **** 0
36 H36 4.4648 -1.4569 -0.2597 H 0 **** 0
37 H37 4.2224 -0.1778 -1.4424 H 0 **** 0
38 H38 -5.7953 -2.5416 1.8189 H 0 **** 0
39 H39 -4.5784 -3.7347 1.3501 H 0 **** 0
40 H40 -4.0848 -2.2617 2.1823 H 0 **** 0
41 H41 5.1604 1.5017 0.1267 H 0 **** 0
42 H42 5.3561 0.2395 1.3714 H 0 **** 0
43 H43 -5.6538 -0.6171 -2.0719 H 0 **** 0
44 H44 -4.5775 -0.098 2.0813 H 0 **** 0
45 H45 -6.3751 1.7227 -2.1694 H 0 **** 0
46 H46 -5.3006 2.2183 1.9865 H 0 **** 0
47 H47 9.1222 0.8535 -1.0645 H 0 **** 0
48 H48 9.2754 -0.41 0.1922 H 0 **** 0
49 H49 9.6524 2.5953 0.6431 H 0 **** 0
50 H50 9.8031 1.3528 1.879 H 0 **** 0
51 H51 10.9641 1.3972 0.5304 H 0 **** 0
@<TRIPOS>BOND
1 1 20 1
2 2 19 1
3 2 21 1
4 3 19 2
5 4 5 1
6 4 6 1
7 4 23 1
8 4 24 1
9 5 7 1
10 5 25 1
11 5 26 1
12 6 8 1
13 6 27 1
14 6 28 1
15 7 11 1
16 7 13 1
17 7 29 1
18 8 9 1
19 8 30 1
20 8 31 1
21 9 10 1
22 9 32 1
23 9 33 1
24 10 12 1
25 10 34 1
26 10 35 1
27 11 15 2
28 11 16 1
29 12 14 1
30 12 36 1
31 12 37 1
32 13 38 1
33 13 39 1
34 13 40 1
35 14 19 1
36 14 41 1
37 14 42 1
38 15 17 1
39 15 43 1
40 16 18 2
41 16 44 1
42 17 20 2
43 17 45 1
44 18 20 1
45 18 46 1
46 21 22 1
47 21 47 1
48 21 48 1
49 22 49 1
50 22 50 1
51 22 51 1
