# Mol2 file generated by Materials Studio
@<TRIPOS>MOLECULE
"5241"
32 32 0 0 0 
SMALL
USER_CHARGES


@<TRIPOS>ATOM
1 I1 0.0335 2.0425 -1.3411 I 0 **** 0
2 I2 2.866 -3.0823 0.4173 I 0 **** 0
3 I3 -3.0906 -2.9213 0.3626 I 0 **** 0
4 O4 4.855 2.0499 1.3979 O.co2 0 **** 0
5 O5 4.8995 1.4089 -0.7807 O.co2 0 **** 0
6 N6 -2.4496 0.0995 -0.6743 N.2 0 **** 0
7 N7 -4.0923 1.5148 0.3789 N.2 0 **** 0
8 C8 2.4909 0.0129 -0.6441 C.3 0 **** 0
9 C9 1.1668 -0.6538 -0.4159 C.2 0 **** 0
10 C10 3.0273 0.7391 0.591 C.3 0 **** 0
11 C11 -0.0212 0.0377 -0.6528 C.2 0 **** 0
12 C12 1.1279 -1.9726 0.0367 C.2 0 **** 0
13 C13 -1.2482 -0.5898 -0.4371 C.2 0 **** 0
14 C14 -0.099 -2.6 0.2525 C.2 0 **** 0
15 C15 -1.2871 -1.9086 0.0155 C.2 0 **** 0
16 C16 4.3405 1.428 0.3085 C.2 0 **** 0
17 C17 -2.9361 0.7567 0.3315 C.2 0 **** 0
18 C18 -4.9451 1.6578 -0.7925 C.3 0 **** 0
19 C19 -4.638 1.9804 1.646 C.3 0 **** 0
20 H20 3.2394 -0.6993 -1.0082 H 0 **** 0
21 H21 2.4566 0.6945 -1.5003 H 0 **** 0
22 H22 2.319 1.5005 0.9338 H 0 **** 0
23 H23 3.1885 0.0342 1.4134 H 0 **** 0
24 H24 -0.1297 -3.6288 0.6057 H 0 **** 0
25 H25 -2.4248 0.7427 1.3128 H 0 **** 0
26 H26 -5.5654 0.7644 -0.9164 H 0 **** 0
27 H27 -4.3453 1.7955 -1.6984 H 0 **** 0
28 H28 -5.605 2.5272 -0.7052 H 0 **** 0
29 H29 -5.2347 2.8887 1.5127 H 0 **** 0
30 H30 -3.8388 2.2186 2.3559 H 0 **** 0
31 H31 -5.2747 1.2066 2.0865 H 0 **** 0
32 H32 5.7138 2.4816 1.2018 H 0 **** 0
@<TRIPOS>BOND
1 1 11 1
2 2 12 1
3 3 15 1
4 4 16 1
5 4 32 1
6 5 16 2
7 6 13 1
8 6 17 2
9 7 17 1
10 7 18 1
11 7 19 1
12 8 9 1
13 8 10 1
14 8 20 1
15 8 21 1
16 9 11 2
17 9 12 1
18 10 16 1
19 10 22 1
20 10 23 1
21 11 13 1
22 12 14 2
23 13 15 2
24 14 15 1
25 14 24 1
26 17 25 1
27 18 26 1
28 18 27 1
29 18 28 1
30 19 29 1
31 19 30 1
32 19 31 1
