# Mol2 file generated by Materials Studio
@<TRIPOS>MOLECULE
"ï»¿3736"
56 56 0 0 0 
SMALL
USER_CHARGES


@<TRIPOS>ATOM
1 I1 20.0905 -16.2677 0.0788 I 0 **** 0
2 I2 13.9122 -11.3987 0.247 I 0 **** 0
3 I3 21.1095 -8.3132 0.2252 I 0 **** 0
4 O4 16.8946 -17.5093 -0.0936 O.3 0 **** 0
5 O5 16.107 -16.1803 0.2104 O.2 0 **** 0
6 O6 14.7485 -19.6779 -0.228 O.3 0 **** 0
7 O7 23.5216 -11.9785 -0.1311 O.3 0 **** 0
8 O8 23.0437 -13.6037 0.1792 O.2 0 **** 0
9 O9 26.6322 -10.4777 -0.234 O.3 0 **** 0
10 O10 18.3636 -7.0583 -0.0939 O.3 0 **** 0
11 O11 15.9513 -6.0848 0.0705 O.2 0 **** 0
12 N12 14.7311 -15.4745 0.0665 N.am 0 **** 0
13 N13 23.0796 -11.2485 0.0738 N.am 0 **** 0
14 N14 16.7431 -8.5799 0.1447 N.am 0 **** 0
15 C15 14.4353 -17.3345 0.0317 C.3 0 **** 0
16 C16 14.935 -17.685 -0.0805 C.3 0 **** 0
17 C17 17.1121 -13.562 0.1478 C.2 0 **** 0
18 C18 15.9193 -15.0899 0.1404 C.2 0 **** 0
19 C19 20.291 -12.2324 0.1446 C.2 0 **** 0
20 C20 19.0527 -13.7506 0.1288 C.2 0 **** 0
21 C21 16.4405 -11.783 0.1763 C.2 0 **** 0
22 C22 17.5794 -10.1991 0.1642 C.2 0 **** 0
23 C23 14.263 -19.557 -0.1246 C.3 0 **** 0
24 C24 24.8713 -11.352 0.0338 C.3 0 **** 0
25 C25 13.6501 -14.0855 0.0182 C.3 0 **** 0
26 C26 19.5166 -10.4821 0.1703 C.2 0 **** 0
27 C27 24.841 -10.8481 -0.0792 C.3 0 **** 0
28 C28 22.2053 -12.3905 0.1332 C.2 0 **** 0
29 C29 26.7543 -11.0179 -0.1315 C.3 0 **** 0
30 C30 17.1369 -7.2963 0.078 C.2 0 **** 0
31 C31 18.7441 -7.1012 0.0121 C.3 0 **** 0
32 C32 19.996 -7.0424 -0.1571 C.3 0 **** 0
33 H33 12.9743 -17.7018 0.0439 H 0 **** 0
34 H34 15.2007 -18.3861 0.0744 H 0 **** 0
35 H35 14.2936 -16.6258 -0.1278 H 0 **** 0
36 H36 12.75 -19.6615 -0.1191 H 0 **** 0
37 H37 14.8831 -20.729 -0.0848 H 0 **** 0
38 H38 25.7385 -10.3477 0.0738 H 0 **** 0
39 H39 25.4964 -12.7274 0.0437 H 0 **** 0
40 H40 24.3745 -9.4061 -0.0869 H 0 **** 0
41 H41 12.2034 -14.5218 0.0082 H 0 **** 0
42 H42 14.2312 -13.7349 -0.0547 H 0 **** 0
43 H43 13.5296 -12.7645 0.0562 H 0 **** 0
44 H44 22.3948 -10.2135 0.0526 H 0 **** 0
45 H45 27.7785 -10.1237 -0.095 H 0 **** 0
46 H46 27.2541 -12.4517 -0.1285 H 0 **** 0
47 H47 15.6082 -8.4027 0.1777 H 0 **** 0
48 H48 17.4377 -18.4986 -0.0523 H 0 **** 0
49 H49 14.2273 -20.8587 -0.2516 H 0 **** 0
50 H50 23.956 -13.2609 -0.1224 H 0 **** 0
51 H51 19.4599 -5.8185 0.0335 H 0 **** 0
52 H52 19.7094 -8.2431 0.0228 H 0 **** 0
53 H53 27.8873 -10.6512 -0.2612 H 0 **** 0
54 H54 19.5719 -7.0087 -0.2354 H 0 **** 0
55 H55 20.868 -5.8255 -0.1428 H 0 **** 0
56 H56 20.8376 -8.2943 -0.1464 H 0 **** 0
@<TRIPOS>BOND
1 1 20 1
2 2 21 1
3 3 26 1
4 4 16 1
5 4 48 1
6 5 18 2
7 6 23 1
8 6 49 1
9 7 27 1
10 7 50 1
11 8 28 2
12 9 29 1
13 9 53 1
14 10 31 1
15 10 32 1
16 11 30 2
17 12 15 am
18 12 18 am
19 12 25 am
20 13 24 am
21 13 28 am
22 13 44 am
23 14 22 am
24 14 30 am
25 14 47 am
26 15 16 1
27 15 34 1
28 15 33 1
29 16 23 1
30 16 35 1
31 17 21 2
32 17 18 1
33 17 20 1
34 19 28 1
35 19 26 1
36 19 20 2
37 21 22 1
38 22 26 2
39 23 36 1
40 23 37 1
41 24 27 1
42 24 38 1
43 24 39 1
44 25 41 1
45 25 42 1
46 25 43 1
47 27 29 1
48 27 40 1
49 29 45 1
50 29 46 1
51 30 31 1
52 31 51 1
53 31 52 1
54 32 54 1
55 32 55 1
56 32 56 1
