# Mol2 file generated by Materials Studio
@<TRIPOS>MOLECULE
"21751"
23 23 0 0 0 
SMALL
USER_CHARGES


@<TRIPOS>ATOM
1 I1 -2.5445 -3.0884 -0.1434 I 0 **** 0
2 I2 -2.7206 3.0466 -0.4137 I 0 **** 0
3 O3 2.3543 -0.986 -0.8792 O.3 0 **** 0
4 O4 4.8281 0.2251 -0.8923 O.3 0 **** 0
5 O5 -3.6306 -0.0618 -0.5555 O.2 0 **** 0
6 N6 0.2329 0.1048 0.7071 N.2 0 **** 0
7 C7 1.631 0.1621 1.1224 C.3 0 **** 0
8 C8 2.5683 0.1815 -0.085 C.3 0 **** 0
9 C9 4.0442 0.2385 0.2969 C.3 0 **** 0
10 C10 -0.4065 -1.1111 0.5194 C.2 0 **** 0
11 C11 -0.4744 1.2607 0.4145 C.2 0 **** 0
12 C12 -1.6738 -1.2584 0.1041 C.2 0 **** 0
13 C13 -1.7473 1.2982 -0.0086 C.2 0 **** 0
14 C14 -2.461 -0.012 -0.1868 C.2 0 **** 0
15 H15 1.8609 -0.7037 1.7577 H 0 **** 0
16 H16 1.806 1.0493 1.7445 H 0 **** 0
17 H17 2.3302 1.0333 -0.7328 H 0 **** 0
18 H18 4.3332 -0.6388 0.8842 H 0 **** 0
19 H19 4.2807 1.1407 0.869 H 0 **** 0
20 H20 0.2205 -1.9669 0.7487 H 0 **** 0
21 H21 0.1065 2.1657 0.5627 H 0 **** 0
22 H22 2.5686 -1.7609 -0.3321 H 0 **** 0
23 H23 4.5931 1.0167 -1.406 H 0 **** 0
@<TRIPOS>BOND
1 1 12 1
2 2 13 1
3 3 8 1
4 3 22 1
5 4 9 1
6 4 23 1
7 5 14 2
8 6 7 1
9 6 10 1
10 6 11 1
11 7 8 1
12 7 15 1
13 7 16 1
14 8 9 1
15 8 17 1
16 9 18 1
17 9 19 1
18 10 12 2
19 10 20 1
20 11 13 2
21 11 21 1
22 12 14 1
23 13 14 1
