# Mol2 file generated by Materials Studio
@<TRIPOS>MOLECULE
"3737"
29 29 0 0 0 
SMALL
USER_CHARGES


@<TRIPOS>ATOM
1 I1 0.1226 -3.2057 -0.7012 I 0 **** 0
2 I2 -3.1638 1.8695 0.1536 I 0 **** 0
3 I3 2.9204 2.199 -0.2388 I 0 **** 0
4 O4 -3.0412 -1.4706 -1.3425 O.2 0 **** 0
5 O5 -0.1076 3.4759 1.4052 O.co2 0 **** 0
6 O6 -0.2757 3.9432 -0.8128 O.co2 0 **** 0
7 O7 3.0859 -1.4928 1.6116 O.2 0 **** 0
8 N8 2.4365 -0.9667 -0.5912 N.am 0 **** 0
9 N9 -2.8667 -1.7748 0.9496 N.am 0 **** 0
10 C10 -1.2133 -0.4689 -0.2685 C.2 0 **** 0
11 C11 1.194 -0.3375 -0.4261 C.2 0 **** 0
12 C12 0.0223 -1.0944 -0.4345 C.2 0 **** 0
13 C13 -0.1056 1.6704 -0.0854 C.2 0 **** 0
14 C14 -1.2772 0.9135 -0.0938 C.2 0 **** 0
15 C15 1.13 1.0449 -0.2517 C.2 0 **** 0
16 C16 -2.4427 -1.2635 -0.2776 C.2 0 **** 0
17 C17 -0.1722 3.1213 0.0963 C.2 0 **** 0
18 C18 3.2744 -1.4842 0.3994 C.2 0 **** 0
19 C19 -4.0462 -2.5964 1.0999 C.3 0 **** 0
20 C20 4.5263 -2.0823 -0.1916 C.3 0 **** 0
21 H21 2.6921 -1.145 -1.56 H 0 **** 0
22 H22 -2.308 -1.5918 1.7783 H 0 **** 0
23 H23 -3.7464 -3.6441 1.0193 H 0 **** 0
24 H24 -4.7798 -2.363 0.3245 H 0 **** 0
25 H25 -4.4733 -2.4107 2.088 H 0 **** 0
26 H26 4.2735 -2.9995 -0.7305 H 0 **** 0
27 H27 5.2352 -2.3189 0.6066 H 0 **** 0
28 H28 4.9962 -1.3725 -0.8786 H 0 **** 0
29 H29 -0.153 4.4487 1.5235 H 0 **** 0
@<TRIPOS>BOND
1 1 12 1
2 2 14 1
3 3 15 1
4 4 16 2
5 5 17 1
6 5 29 1
7 6 17 2
8 7 18 2
9 8 11 am
10 8 18 am
11 8 21 am
12 9 16 am
13 9 19 am
14 9 22 am
15 10 12 1
16 10 14 2
17 10 16 1
18 11 12 2
19 11 15 1
20 13 14 1
21 13 15 2
22 13 17 1
23 18 20 1
24 19 23 1
25 19 24 1
26 19 25 1
27 20 26 1
28 20 27 1
29 20 28 1
