# Mol2 file generated by Materials Studio
@<TRIPOS>MOLECULE
"3741"
57 57 0 0 0 
SMALL
USER_CHARGES


@<TRIPOS>ATOM
1 I1 -2.9336 -1.6489 -1.0025 I 0 **** 0
2 I2 2.9561 -1.5564 0.5964 I 0 **** 0
3 I3 -0.1518 3.6753 0.0917 I 0 **** 0
4 O4 5.754 0.9654 -1.1509 O.3 0 **** 0
5 O5 -5.8746 0.4888 0.9967 O.3 0 **** 0
6 O6 1.9188 -4.8191 -2.6269 O.3 0 **** 0
7 O7 2.5347 1.8744 1.8104 O.2 0 **** 0
8 O8 -2.7251 1.9135 -1.8334 O.2 0 **** 0
9 O9 -0.2365 -4.6689 0.8902 O.2 0 **** 0
10 O10 7.9367 1.6139 0.4477 O.3 0 **** 0
11 O11 -8.0973 1.1725 -0.5305 O.3 0 **** 0
12 O12 -0.9725 -3.703 3.1582 O.3 0 **** 0
13 N13 0.0435 -2.6335 -0.2623 N.am 0 **** 0
14 N14 3.1529 1.999 -0.421 N.am 0 **** 0
15 N15 -3.3501 1.7578 0.395 N.am 0 **** 0
16 C16 0.0004 -1.2339 -0.1844 C.2 0 **** 0
17 C17 1.1019 0.8725 0.2478 C.2 0 **** 0
18 C18 -1.2298 0.8359 -0.3839 C.2 0 **** 0
19 C19 -1.1869 -0.5561 -0.4614 C.2 0 **** 0
20 C20 1.1448 -0.5195 0.1701 C.2 0 **** 0
21 C21 0.4012 -3.3087 -1.5435 C.3 0 **** 0
22 C22 -0.0854 1.5502 -0.0292 C.2 0 **** 0
23 C23 4.3873 2.7212 -0.2128 C.3 0 **** 0
24 C24 -4.6214 2.4178 0.2624 C.3 0 **** 0
25 C25 2.3031 1.622 0.6197 C.2 0 **** 0
26 C26 -2.494 1.5574 -0.6808 C.2 0 **** 0
27 C27 5.587 1.7993 -0.0036 C.3 0 **** 0
28 C28 -5.7625 1.452 -0.0516 C.3 0 **** 0
29 C29 -0.2553 -3.4345 0.8878 C.2 0 **** 0
30 C30 1.6404 -4.1718 -1.3921 C.3 0 **** 0
31 C31 6.8892 2.5559 0.2382 C.3 0 **** 0
32 C32 -7.1095 2.1487 -0.2147 C.3 0 **** 0
33 C33 -0.6654 -2.7392 2.1733 C.3 0 **** 0
34 H34 -0.4466 -3.9402 -1.8347 H 0 **** 0
35 H35 0.5374 -2.5622 -2.3349 H 0 **** 0
36 H36 4.5343 3.333 -1.1098 H 0 **** 0
37 H37 4.2672 3.3913 0.6453 H 0 **** 0
38 H38 -4.8052 2.9173 1.2202 H 0 **** 0
39 H39 -4.5478 3.1853 -0.5159 H 0 **** 0
40 H40 5.4057 1.1265 0.843 H 0 **** 0
41 H41 -5.5423 0.8884 -0.966 H 0 **** 0
42 H42 2.9043 1.7475 -1.3736 H 0 **** 0
43 H43 -3.0798 1.4173 1.3134 H 0 **** 0
44 H44 2.5292 -3.5924 -1.1778 H 0 **** 0
45 H45 1.5393 -4.9474 -0.6311 H 0 **** 0
46 H46 6.8134 3.1998 1.1197 H 0 **** 0
47 H47 7.1561 3.1608 -0.6345 H 0 **** 0
48 H48 -7.4111 2.6369 0.7178 H 0 **** 0
49 H49 -7.076 2.8887 -1.0201 H 0 **** 0
50 H50 0.1569 -2.1207 2.5403 H 0 **** 0
51 H51 -1.5522 -2.1242 2.0096 H 0 **** 0
52 H52 4.9209 0.481 -1.2818 H 0 **** 0
53 H53 -5.0127 0.0454 1.0774 H 0 **** 0
54 H54 2.7148 -5.3618 -2.4944 H 0 **** 0
55 H55 8.7513 2.1234 0.5978 H 0 **** 0
56 H56 -8.9422 1.644 -0.6274 H 0 **** 0
57 H57 -1.2117 -3.2211 3.9682 H 0 **** 0
@<TRIPOS>BOND
1 1 19 1
2 2 20 1
3 3 22 1
4 4 27 1
5 4 52 1
6 5 28 1
7 5 53 1
8 6 30 1
9 6 54 1
10 7 25 2
11 8 26 2
12 9 29 2
13 10 31 1
14 10 55 1
15 11 32 1
16 11 56 1
17 12 33 1
18 12 57 1
19 13 16 am
20 13 21 am
21 13 29 am
22 14 23 am
23 14 25 am
24 14 42 am
25 15 24 am
26 15 26 am
27 15 43 am
28 16 19 2
29 16 20 1
30 17 20 2
31 17 22 1
32 17 25 1
33 18 19 1
34 18 22 2
35 18 26 1
36 21 30 1
37 21 34 1
38 21 35 1
39 23 27 1
40 23 36 1
41 23 37 1
42 24 28 1
43 24 38 1
44 24 39 1
45 27 31 1
46 27 40 1
47 28 32 1
48 28 41 1
49 29 33 1
50 30 44 1
51 30 45 1
52 31 46 1
53 31 47 1
54 32 48 1
55 32 49 1
56 33 50 1
57 33 51 1
