# Mol2 file generated by Materials Studio
@<TRIPOS>MOLECULE
"34536"
33 33 0 0 0 
SMALL
USER_CHARGES


@<TRIPOS>ATOM
1 I1 -1.2634 -2.4756 1.0852 I 0 **** 0
2 I2 -0.9359 3.5068 -0.0923 I 0 **** 0
3 I3 4.1438 0.1187 -0.048 I 0 **** 0
4 O4 -2.6783 0.842 1.7246 O.2 0 **** 0
5 O5 -4.6314 -1.7068 -1.3324 O.3 0 **** 0
6 O6 2.3328 2.8838 -1.6467 O.co2 0 **** 0
7 O7 2.6988 3.463 0.5206 O.co2 0 **** 0
8 O8 1.8912 -3.0029 -1.5376 O.2 0 **** 0
9 N9 -2.9536 0.4401 -0.5424 N.am 0 **** 0
10 N10 1.904 -2.0939 0.6358 N.am 0 **** 0
11 C11 -0.736 0.4892 0.459 C.2 0 **** 0
12 C12 1.2741 -0.8509 0.4759 C.2 0 **** 0
13 C13 -0.1095 -0.7467 0.6193 C.2 0 **** 0
14 C14 1.4044 1.5163 0.0116 C.2 0 **** 0
15 C15 0.0209 1.6207 0.1552 C.2 0 **** 0
16 C16 2.031 0.2805 0.172 C.2 0 **** 0
17 C17 -2.1876 0.5988 0.6131 C.2 0 **** 0
18 C18 -4.395 0.5436 -0.5572 C.3 0 **** 0
19 C19 -5.0332 -0.8126 -0.3029 C.3 0 **** 0
20 C20 2.1992 2.7035 -0.3077 C.2 0 **** 0
21 C21 2.1625 -3.0567 -0.3425 C.2 0 **** 0
22 C22 2.8612 -4.2609 0.2373 C.3 0 **** 0
23 H23 -4.6706 0.9172 -1.5487 H 0 **** 0
24 H24 -4.7186 1.2665 0.1982 H 0 **** 0
25 H25 -2.482 0.2453 -1.4212 H 0 **** 0
26 H26 2.0767 -2.3558 1.604 H 0 **** 0
27 H27 -6.1239 -0.7331 -0.3252 H 0 **** 0
28 H28 -4.7345 -1.2324 0.6626 H 0 **** 0
29 H29 3.7361 -3.9476 0.8142 H 0 **** 0
30 H30 3.191 -4.9212 -0.5696 H 0 **** 0
31 H31 2.1712 -4.8062 0.887 H 0 **** 0
32 H32 -3.6627 -1.7825 -1.2911 H 0 **** 0
33 H33 2.8662 3.6798 -1.8573 H 0 **** 0
@<TRIPOS>BOND
1 1 13 1
2 2 15 1
3 3 16 1
4 4 17 2
5 5 19 1
6 5 32 1
7 6 20 1
8 6 33 1
9 7 20 2
10 8 21 2
11 9 17 am
12 9 18 am
13 9 25 am
14 10 12 am
15 10 21 am
16 10 26 am
17 11 13 1
18 11 15 2
19 11 17 1
20 12 13 2
21 12 16 1
22 14 15 1
23 14 16 2
24 14 20 1
25 18 19 1
26 18 23 1
27 18 24 1
28 19 27 1
29 19 28 1
30 21 22 1
31 22 29 1
32 22 30 1
33 22 31 1
