# Mol2 file generated by Materials Studio
@<TRIPOS>MOLECULE
"3743"
56 56 0 0 0 
SMALL
USER_CHARGES


@<TRIPOS>ATOM
1 I1 -2.2954 1.3499 0.8995 I 0 **** 0
2 I2 3.7801 1.337 0.3133 I 0 **** 0
3 I3 0.7224 -3.9444 0.5155 I 0 **** 0
4 O4 -1.2845 4.3315 -0.1354 O.3 0 **** 0
5 O5 -2.0761 4.5003 -2.7971 O.3 0 **** 0
6 O6 -4.8197 -0.9318 -1.4779 O.3 0 **** 0
7 O7 0.9481 4.3652 1.8751 O.2 0 **** 0
8 O8 -2.1698 -2.1726 1.8979 O.2 0 **** 0
9 O9 3.8324 -2.1865 1.3197 O.2 0 **** 0
10 O10 -7.2565 -1.6101 -0.3192 O.3 0 **** 0
11 O11 5.7608 -1.108 -2.5552 O.3 0 **** 0
12 N12 0.7461 2.3765 0.6224 N.am 0 **** 0
13 N13 -2.4118 -2.1164 -0.4082 N.am 0 **** 0
14 N14 3.601 -2.1654 -0.9874 N.am 0 **** 0
15 C15 0.7222 3.104 -0.6803 C.3 0 **** 0
16 C16 0.7408 0.9741 0.5981 C.2 0 **** 0
17 C17 -0.6893 3.487 -1.1212 C.3 0 **** 0
18 C18 -0.4644 0.2794 0.7013 C.2 0 **** 0
19 C19 -0.4698 -1.1152 0.6772 C.2 0 **** 0
20 C20 1.9406 0.2741 0.4707 C.2 0 **** 0
21 C21 1.9352 -1.1205 0.4464 C.2 0 **** 0
22 C22 0.73 -1.8151 0.5498 C.2 0 **** 0
23 C23 -0.7219 4.2119 -2.4629 C.3 0 **** 0
24 C24 0.8639 3.1352 1.8333 C.2 0 **** 0
25 C25 -3.6757 -2.8011 -0.4642 C.3 0 **** 0
26 C26 -1.7534 -1.8549 0.787 C.2 0 **** 0
27 C27 -4.8698 -1.8516 -0.3867 C.3 0 **** 0
28 C28 3.1944 -1.8546 0.3109 C.2 0 **** 0
29 C29 0.8478 2.3834 3.1445 C.3 0 **** 0
30 C30 -6.2128 -2.5737 -0.4238 C.3 0 **** 0
31 C31 4.8066 -2.9053 -1.2835 C.3 0 **** 0
32 C32 5.9985 -1.9822 -1.4596 C.3 0 **** 0
33 H33 1.1987 2.4833 -1.448 H 0 **** 0
34 H34 1.3267 4.0112 -0.5619 H 0 **** 0
35 H35 -1.3096 2.6072 -1.2746 H 0 **** 0
36 H36 -0.2857 3.5972 -3.2563 H 0 **** 0
37 H37 -0.185 5.1644 -2.4033 H 0 **** 0
38 H38 -3.6864 -3.3406 -1.4179 H 0 **** 0
39 H39 -3.7216 -3.5367 0.3463 H 0 **** 0
40 H40 -4.8171 -1.2487 0.5276 H 0 **** 0
41 H41 -1.996 -1.8045 -1.2814 H 0 **** 0
42 H42 1.0728 3.0751 3.9624 H 0 **** 0
43 H43 -0.1376 1.9499 3.324 H 0 **** 0
44 H44 1.6067 1.5981 3.1538 H 0 **** 0
45 H45 -1.402 3.8001 0.6698 H 0 **** 0
46 H46 -6.3031 -3.2817 0.4056 H 0 **** 0
47 H47 -6.3441 -3.1038 -1.3728 H 0 **** 0
48 H48 3.0279 -1.8591 -1.7686 H 0 **** 0
49 H49 4.9978 -3.6235 -0.4798 H 0 **** 0
50 H50 4.6118 -3.4564 -2.2094 H 0 **** 0
51 H51 -2.0654 4.962 -3.6529 H 0 **** 0
52 H52 -3.9647 -0.4709 -1.4305 H 0 **** 0
53 H53 6.1686 -1.3779 -0.563 H 0 **** 0
54 H54 6.9004 -2.5648 -1.6709 H 0 **** 0
55 H55 -8.0973 -2.0977 -0.3463 H 0 **** 0
56 H56 6.544 -0.5378 -2.64 H 0 **** 0
@<TRIPOS>BOND
1 1 18 1
2 2 20 1
3 3 22 1
4 4 17 1
5 4 45 1
6 5 23 1
7 5 51 1
8 6 27 1
9 6 52 1
10 7 24 2
11 8 26 2
12 9 28 2
13 10 30 1
14 10 55 1
15 11 32 1
16 11 56 1
17 12 15 am
18 12 16 am
19 12 24 am
20 13 25 am
21 13 26 am
22 13 41 am
23 14 28 am
24 14 31 am
25 14 48 am
26 15 17 1
27 15 33 1
28 15 34 1
29 16 18 1
30 16 20 2
31 17 23 1
32 17 35 1
33 18 19 2
34 19 22 1
35 19 26 1
36 20 21 1
37 21 22 2
38 21 28 1
39 23 36 1
40 23 37 1
41 24 29 1
42 25 27 1
43 25 38 1
44 25 39 1
45 27 30 1
46 27 40 1
47 29 42 1
48 29 43 1
49 29 44 1
50 30 46 1
51 30 47 1
52 31 32 1
53 31 49 1
54 31 50 1
55 32 53 1
56 32 54 1
