# Mol2 file generated by Materials Studio
@<TRIPOS>MOLECULE
"31346"
9 8 0 0 0 
SMALL
USER_CHARGES


@<TRIPOS>ATOM
1 I1 2.6501 0.0845 0.0066 I 0 **** 0
2 S2 -0.5562 0.1545 0.015 S.o2 0 **** 0
3 O3 -1.7269 -0.9627 -0.1856 O.3 0 **** 0
4 O4 -0.5116 0.9891 -1.1684 O.2 0 **** 0
5 O5 -0.6808 0.714 1.3459 O.2 0 **** 0
6 C6 0.8255 -0.9794 -0.0135 C.3 0 **** 0
7 H7 0.7359 -1.5766 -0.9257 H 0 **** 0
8 H8 0.7276 -1.6371 0.8548 H 0 **** 0
9 H9 -1.7838 -1.3614 -1.0857 H 0 **** 0
@<TRIPOS>BOND
1 1 6 1
2 2 3 1
3 2 4 2
4 2 5 2
5 2 6 1
6 3 9 1
7 6 7 1
8 6 8 1
