# Mol2 file generated by Materials Studio
@<TRIPOS>MOLECULE
"443944"
54 55 0 0 0 
SMALL
USER_CHARGES


@<TRIPOS>ATOM
1 I1 0.3295 2.9131 0.8095 I 0 **** 0
2 I2 0.7437 -3.1663 1.2353 I 0 **** 0
3 I3 5.6683 0.136 -0.2204 I 0 **** 0
4 O4 -4.8652 0.9679 0.5988 O.3 0 **** 0
5 O5 -3.0507 -2.5655 -0.5254 O.3 0 **** 0
6 O6 -5.5865 -1.8352 -1.6803 O.3 0 **** 0
7 O7 -3.1187 1.7591 -0.7898 O.3 0 **** 0
8 O8 -7.4279 1.662 -0.0377 O.3 0 **** 0
9 O9 -0.8649 -0.1217 2.4596 O.2 0 **** 0
10 O10 3.9464 4.1567 -1.4278 O.2 0 **** 0
11 O11 3.5432 -3.0329 -1.8048 O.2 0 **** 0
12 N12 -1.4063 -0.2919 0.2112 N.am 0 **** 0
13 N13 3.4391 2.4413 0.1101 N.am 0 **** 0
14 N14 3.7678 -2.3803 0.4478 N.am 0 **** 0
15 C15 -2.8394 -0.3495 0.3869 C.3 0 **** 0
16 C16 -3.4973 -1.2179 -0.6885 C.3 0 **** 0
17 C17 -5.0222 -1.1844 -0.5445 C.3 0 **** 0
18 C18 -5.5403 0.2551 -0.4433 C.3 0 **** 0
19 C19 -3.4514 1.0548 0.4051 C.3 0 **** 0
20 C20 -7.0321 0.3056 -0.1245 C.3 0 **** 0
21 C21 -0.5295 -0.1812 1.2795 C.2 0 **** 0
22 C22 0.9126 -0.1074 0.9304 C.2 0 **** 0
23 C23 1.4865 1.1284 0.6874 C.2 0 **** 0
24 C24 1.6503 -1.276 0.8556 C.2 0 **** 0
25 C25 2.8405 1.1977 0.3595 C.2 0 **** 0
26 C26 3.0043 -1.2068 0.5278 C.2 0 **** 0
27 C27 3.5994 0.0301 0.2798 C.2 0 **** 0
28 C28 3.9559 3.2207 1.2733 C.3 0 **** 0
29 C29 3.4949 3.0326 -1.1949 C.2 0 **** 0
30 C30 3.9809 -3.1908 -0.6698 C.2 0 **** 0
31 C31 3.0023 2.2131 -2.3656 C.3 0 **** 0
32 C32 4.8666 -4.3662 -0.3403 C.3 0 **** 0
33 H33 -3.034 -0.8171 1.3621 H 0 **** 0
34 H34 -3.1983 -0.9211 -1.6999 H 0 **** 0
35 H35 -5.3217 -1.7537 0.3446 H 0 **** 0
36 H36 -5.3871 0.7882 -1.3909 H 0 **** 0
37 H37 -3.0485 1.6345 1.2414 H 0 **** 0
38 H38 -1.0359 -0.2806 -0.7351 H 0 **** 0
39 H39 -7.2526 -0.1694 0.8372 H 0 **** 0
40 H40 -7.627 -0.1811 -0.9027 H 0 **** 0
41 H41 -3.3058 -2.8635 0.3644 H 0 **** 0
42 H42 -5.227 -2.7384 -1.7075 H 0 **** 0
43 H43 -2.9976 1.1307 -1.5181 H 0 **** 0
44 H44 -6.8914 2.0814 0.6566 H 0 **** 0
45 H45 4.1127 -2.7194 1.3433 H 0 **** 0
46 H46 5.0275 3.3828 1.1241 H 0 **** 0
47 H47 3.7838 2.6851 2.211 H 0 **** 0
48 H48 3.4612 4.196 1.2923 H 0 **** 0
49 H49 1.9828 1.861 -2.1937 H 0 **** 0
50 H50 3.6637 1.3632 -2.5426 H 0 **** 0
51 H51 2.9936 2.8348 -3.2663 H 0 **** 0
52 H52 5.7895 -4.0201 0.1338 H 0 **** 0
53 H53 5.1227 -4.9048 -1.2569 H 0 **** 0
54 H54 4.3393 -5.0436 0.3371 H 0 **** 0
@<TRIPOS>BOND
1 1 23 1
2 2 24 1
3 3 27 1
4 4 18 1
5 4 19 1
6 5 16 1
7 5 41 1
8 6 17 1
9 6 42 1
10 7 19 1
11 7 43 1
12 8 20 1
13 8 44 1
14 9 21 2
15 10 29 2
16 11 30 2
17 12 15 am
18 12 21 am
19 12 38 am
20 13 25 am
21 13 28 am
22 13 29 am
23 14 26 am
24 14 30 am
25 14 45 am
26 15 16 1
27 15 19 1
28 15 33 1
29 16 17 1
30 16 34 1
31 17 18 1
32 17 35 1
33 18 20 1
34 18 36 1
35 19 37 1
36 20 39 1
37 20 40 1
38 21 22 1
39 22 23 1
40 22 24 2
41 23 25 2
42 24 26 1
43 25 27 1
44 26 27 2
45 28 46 1
46 28 47 1
47 28 48 1
48 29 31 1
49 30 32 1
50 31 49 1
51 31 50 1
52 31 51 1
53 32 52 1
54 32 53 1
55 32 54 1
