# Mol2 file generated by Materials Studio
@<TRIPOS>MOLECULE
"2528"
32 32 0 0 0 
SMALL
USER_CHARGES


@<TRIPOS>ATOM
1 I1 0.0315 3.1193 -0.8941 I 0 **** 0
2 I2 2.8676 -2.204 0.0526 I 0 **** 0
3 I3 -3.2336 -1.9854 -0.1475 I 0 **** 0
4 O4 4.1481 1.9961 0.6484 O.2 0 **** 0
5 O5 -0.2803 -3.4785 1.4523 O.co2 0 **** 0
6 O6 -0.2299 -4.0368 -0.7505 O.co2 0 **** 0
7 O7 -3.0004 1.7701 1.5669 O.2 0 **** 0
8 N8 2.3646 0.9349 -0.4734 N.am 0 **** 0
9 N9 -2.4742 1.1083 -0.6322 N.am 0 **** 0
10 C10 1.1232 0.2866 -0.4007 C.2 0 **** 0
11 C11 -1.2899 0.373 -0.4797 C.2 0 **** 0
12 C12 -0.055 1.0176 -0.5519 C.2 0 **** 0
13 C13 1.0666 -1.0892 -0.1773 C.2 0 **** 0
14 C14 -0.1682 -1.7338 -0.1051 C.2 0 **** 0
15 C15 -1.3465 -1.0027 -0.2563 C.2 0 **** 0
16 C16 3.0692 0.9629 -1.7889 C.3 0 **** 0
17 C17 3.0235 1.4898 0.6729 C.2 0 **** 0
18 C18 -0.2277 -3.1774 0.1294 C.2 0 **** 0
19 C19 2.2788 1.4869 1.9882 C.3 0 **** 0
20 C20 -3.2284 1.7361 0.3619 C.2 0 **** 0
21 C21 -4.4391 2.4263 -0.2146 C.3 0 **** 0
22 H22 4.0527 0.4988 -1.6724 H 0 **** 0
23 H23 3.2154 2.0091 -2.0734 H 0 **** 0
24 H24 2.4881 0.4428 -2.5554 H 0 **** 0
25 H25 -2.8686 1.0807 -1.57 H 0 **** 0
26 H26 1.9411 0.4799 2.243 H 0 **** 0
27 H27 1.4249 2.1652 1.9456 H 0 **** 0
28 H28 2.9477 1.8265 2.7852 H 0 **** 0
29 H29 -4.1396 3.0937 -1.0277 H 0 **** 0
30 H30 -4.9326 3.0175 0.5618 H 0 **** 0
31 H31 -5.1404 1.6785 -0.5949 H 0 **** 0
32 H32 -0.3195 -4.4467 1.6059 H 0 **** 0
@<TRIPOS>BOND
1 1 12 1
2 2 13 1
3 3 15 1
4 4 17 2
5 5 18 1
6 5 32 1
7 6 18 2
8 7 20 2
9 8 10 am
10 8 16 am
11 8 17 am
12 9 11 am
13 9 20 am
14 9 25 am
15 10 12 1
16 10 13 2
17 11 12 2
18 11 15 1
19 13 14 1
20 14 15 2
21 14 18 1
22 16 22 1
23 16 23 1
24 16 24 1
25 17 19 1
26 19 26 1
27 19 27 1
28 19 28 1
29 20 21 1
30 21 29 1
31 21 30 1
32 21 31 1
