# Mol2 file generated by Materials Studio
@<TRIPOS>MOLECULE
"4949"
27 27 0 0 0 
SMALL
USER_CHARGES


@<TRIPOS>ATOM
1 I1 -3.4744 -3.0504 -0.3768 I 0 **** 0
2 I2 -3.3897 3.0924 -0.3183 I 0 **** 0
3 O3 2.9945 -0.0306 0.5499 O.co2 0 **** 0
4 O4 1.3809 0.037 -1.0973 O.co2 0 **** 0
5 O5 -4.4169 0.0376 -0.6708 O.2 0 **** 0
6 N6 -0.6134 -0.0285 0.7706 N.2 0 **** 0
7 C7 0.7648 -0.0532 1.2505 C.3 0 **** 0
8 C8 5.3757 -0.0233 0.2355 C.3 0 **** 0
9 C9 4.0182 0.0062 -0.4497 C.3 0 **** 0
10 C10 1.7116 -0.0096 0.0797 C.2 0 **** 0
11 C11 -1.2918 -1.2043 0.4881 C.2 0 **** 0
12 C12 -1.2589 1.1705 0.5104 C.2 0 **** 0
13 C13 6.5154 0.0285 -0.7662 C.3 0 **** 0
14 C14 -2.5432 -1.2749 0.009 C.2 0 **** 0
15 C15 -2.5079 1.2848 0.0335 C.2 0 **** 0
16 C16 -3.2648 0.0177 -0.2481 C.2 0 **** 0
17 H17 0.9621 0.8093 1.8981 H 0 **** 0
18 H18 0.9586 -0.964 1.8293 H 0 **** 0
19 H19 5.4543 0.8198 0.9324 H 0 **** 0
20 H20 5.4587 -0.929 0.8483 H 0 **** 0
21 H21 3.9134 0.9244 -1.0395 H 0 **** 0
22 H22 3.9102 -0.8621 -1.1103 H 0 **** 0
23 H23 -0.7075 -2.0957 0.6936 H 0 **** 0
24 H24 -0.6499 2.041 0.7334 H 0 **** 0
25 H25 6.4728 0.9459 -1.3618 H 0 **** 0
26 H26 7.4784 0.0054 -0.2467 H 0 **** 0
27 H27 6.4769 -0.8266 -1.4486 H 0 **** 0
@<TRIPOS>BOND
1 1 14 1
2 2 15 1
3 3 9 1
4 3 10 1
5 4 10 2
6 5 16 2
7 6 7 1
8 6 11 1
9 6 12 1
10 7 10 1
11 7 17 1
12 7 18 1
13 8 9 1
14 8 13 1
15 8 19 1
16 8 20 1
17 9 21 1
18 9 22 1
19 11 14 2
20 11 23 1
21 12 15 2
22 12 24 1
23 13 25 1
24 13 26 1
25 13 27 1
26 14 16 1
27 15 16 1
