# Mol2 file generated by Materials Studio
@<TRIPOS>MOLECULE
"5611"
40 40 0 0 0 
SMALL
USER_CHARGES


@<TRIPOS>ATOM
1 I1 -0.4552 -1.9682 1.6214 I 0 **** 0
2 I2 3.2966 2.6318 0.1645 I 0 **** 0
3 I3 -2.5787 3.3879 -0.452 I 0 **** 0
4 O4 3.1038 0.3011 -1.8618 O.co2 0 **** 0
5 O5 4.9853 -0.1457 -0.6761 O.co2 0 **** 0
6 O6 -2.9167 -0.6331 -1.4461 O.2 0 **** 0
7 N7 -2.5287 0.3206 0.6673 N.am 0 **** 0
8 C8 2.8898 -1.1736 0.0186 C.3 0 **** 0
9 C9 2.3373 -0.3447 1.1929 C.3 0 **** 0
10 C10 3.6889 -2.3791 0.5471 C.3 0 **** 0
11 C11 1.1554 0.5146 0.8113 C.2 0 **** 0
12 C12 -0.1352 0.0111 0.9193 C.2 0 **** 0
13 C13 3.7819 -0.2946 -0.8479 C.2 0 **** 0
14 C14 4.2917 -3.2201 -0.5714 C.3 0 **** 0
15 C15 1.3776 1.8077 0.3533 C.2 0 **** 0
16 C16 -1.22 0.8128 0.5643 C.2 0 **** 0
17 C17 0.2929 2.6095 -0.0017 C.2 0 **** 0
18 C18 -1.006 2.1119 0.1038 C.2 0 **** 0
19 C19 -4.6576 -0.7186 0.2202 C.3 0 **** 0
20 C20 -3.2729 -0.3592 -0.3049 C.2 0 **** 0
21 C21 -5.5279 -1.464 -0.7892 C.3 0 **** 0
22 C22 -6.9025 -1.8081 -0.2328 C.3 0 **** 0
23 H23 2.0804 -1.5613 -0.6132 H 0 **** 0
24 H24 2.0881 -0.9939 2.0376 H 0 **** 0
25 H25 3.1363 0.2532 1.6456 H 0 **** 0
26 H26 4.4955 -2.0427 1.2103 H 0 **** 0
27 H27 3.0297 -3.0181 1.1468 H 0 **** 0
28 H28 3.5189 -3.5473 -1.2744 H 0 **** 0
29 H29 4.762 -4.1148 -0.1503 H 0 **** 0
30 H30 5.0608 -2.6807 -1.1306 H 0 **** 0
31 H31 0.4601 3.6228 -0.3612 H 0 **** 0
32 H32 -2.9144 0.3512 1.6087 H 0 **** 0
33 H33 -5.1559 0.2109 0.5216 H 0 **** 0
34 H34 -4.5289 -1.3341 1.119 H 0 **** 0
35 H35 -5.6489 -0.8545 -1.6928 H 0 **** 0
36 H36 -5.0244 -2.3876 -1.0991 H 0 **** 0
37 H37 3.6904 0.8586 -2.4162 H 0 **** 0
38 H38 -6.8171 -2.4493 0.6502 H 0 **** 0
39 H39 -7.4938 -2.3399 -0.9846 H 0 **** 0
40 H40 -7.4469 -0.9019 0.051 H 0 **** 0
@<TRIPOS>BOND
1 1 12 1
2 2 15 1
3 3 18 1
4 4 13 1
5 4 37 1
6 5 13 2
7 6 20 2
8 7 16 am
9 7 20 am
10 7 32 am
11 8 9 1
12 8 10 1
13 8 13 1
14 8 23 1
15 9 11 1
16 9 24 1
17 9 25 1
18 10 14 1
19 10 26 1
20 10 27 1
21 11 12 2
22 11 15 1
23 12 16 1
24 14 28 1
25 14 29 1
26 14 30 1
27 15 17 2
28 16 18 2
29 17 18 1
30 17 31 1
31 19 20 1
32 19 21 1
33 19 33 1
34 19 34 1
35 21 22 1
36 21 35 1
37 21 36 1
38 22 38 1
39 22 39 1
40 22 40 1
